
#======================================================================
# CRYSTAL DATA
#----------------------------------------------------------------------
data_VESTA_phase_1

_chemical_name_common                  'Cubtc-opt; '
_cell_length_a                         26.601000
_cell_length_b                         26.601000
_cell_length_c                         26.601000
_cell_angle_alpha                      90.000000
_cell_angle_beta                       90.000000
_cell_angle_gamma                      90.000000
_cell_volume                           18823.218403
_symmetry_space_group_name_Hall 'P 1'
_symmetry_space_group_name_H-M  'P 1'


loop_
_space_group_symop_operation_xyz
   'x, y, z'

loop_
   _atom_site_label
   _atom_site_occupancy
   _atom_site_fract_x
   _atom_site_fract_y
   _atom_site_fract_z
   _atom_site_charge
   _atom_site_type_symbol
   H1         1.0     0.382128     0.232510     0.882110    0.136294 H
   H2         1.0     0.617872     0.767452     0.882110    0.136883 H
   H3         1.0     0.617872     0.232510     0.117853    0.136764 H
   H4         1.0     0.382128     0.767452     0.117853    0.136471 H
   H5         1.0     0.882110     0.382128     0.232510    0.136321 H
   H6         1.0     0.882110     0.617872     0.767452    0.136952 H
   H7         1.0     0.117853     0.617872     0.232510    0.136446 H
   H8         1.0     0.117853     0.382128     0.767452    0.136482 H
   H9         1.0     0.232510     0.882110     0.382128    0.136299 H
   H10        1.0     0.767452     0.882110     0.617872    0.136945 H
   H11        1.0     0.232510     0.117853     0.617872    0.136463 H
   H12        1.0     0.767452     0.117890     0.382128    0.136751 H
   H13        1.0     0.232510     0.382128     0.117853    0.136748 H
   H14        1.0     0.767452     0.617872     0.117853    0.136588 H
   H15        1.0     0.232510     0.617872     0.882110    0.136303 H
   H16        1.0     0.767452     0.382128     0.882110    0.136833 H
   H17        1.0     0.382128     0.882110     0.767452    0.136819 H
   H18        1.0     0.617872     0.882110     0.232510    0.136272 H
   H19        1.0     0.617872     0.117890     0.767452    0.136863 H
   H20        1.0     0.382128     0.117853     0.232510    0.136714 H
   H21        1.0     0.882110     0.232510     0.617872    0.136325 H
   H22        1.0     0.882110     0.767452     0.382128    0.136818 H
   H23        1.0     0.117853     0.232510     0.382128    0.136749 H
   H24        1.0     0.117853     0.767452     0.617872    0.136586 H
   H25        1.0     0.617872     0.767452     0.117853    0.136512 H
   H26        1.0     0.382128     0.232510     0.117853    0.136698 H
   H27        1.0     0.382128     0.767452     0.882110    0.136828 H
   H28        1.0     0.617872     0.232510     0.882110    0.136274 H
   H29        1.0     0.117853     0.617872     0.767452    0.136572 H
   H30        1.0     0.117853     0.382128     0.232510    0.136735 H
   H31        1.0     0.882110     0.382128     0.767452    0.136843 H
   H32        1.0     0.882110     0.617872     0.232510    0.136325 H
   H33        1.0     0.767452     0.117890     0.617872    0.136789 H
   H34        1.0     0.232510     0.117853     0.382128    0.136728 H
   H35        1.0     0.767452     0.882110     0.382128    0.136778 H
   H36        1.0     0.232510     0.882110     0.617872    0.136324 H
   H37        1.0     0.767452     0.617872     0.882110    0.136946 H
   H38        1.0     0.232510     0.382128     0.882110    0.136310 H
   H39        1.0     0.767452     0.382128     0.117890    0.136746 H
   H40        1.0     0.232510     0.617872     0.117853    0.136460 H
   H41        1.0     0.617872     0.117890     0.232510    0.136320 H
   H42        1.0     0.382128     0.117890     0.767452    0.136751 H
   H43        1.0     0.382128     0.882110     0.232510    0.136281 H
   H44        1.0     0.617872     0.882110     0.767452    0.136867 H
   H45        1.0     0.117853     0.767452     0.382128    0.136470 H
   H46        1.0     0.117853     0.232510     0.617872    0.136488 H
   H47        1.0     0.882110     0.767452     0.617872    0.136948 H
   H48        1.0     0.882110     0.232510     0.382128    0.136345 H
   H49        1.0     0.382128     0.732529     0.382128    0.136599 H
   H50        1.0     0.617872     0.267471     0.382128    0.136860 H
   H51        1.0     0.617872     0.732529     0.617872    0.136608 H
   H52        1.0     0.382128     0.267471     0.617872    0.136546 H
   H53        1.0     0.882110     0.882110     0.732529    0.136861 H
   H54        1.0     0.882110     0.117890     0.267471    0.136777 H
   H55        1.0     0.117853     0.117853     0.732529    0.136324 H
   H56        1.0     0.117853     0.882110     0.267471    0.136594 H
   H57        1.0     0.382128     0.382128     0.267471    0.136866 H
   H58        1.0     0.617872     0.382128     0.732529    0.136598 H
   H59        1.0     0.617872     0.617872     0.267471    0.136545 H
   H60        1.0     0.382128     0.617872     0.732529    0.136597 H
   H61        1.0     0.882110     0.732529     0.117890    0.136844 H
   H62        1.0     0.882110     0.267471     0.882110    0.136777 H
   H63        1.0     0.117853     0.732529     0.882110    0.136663 H
   H64        1.0     0.117853     0.267471     0.117890    0.137180 H
   H65        1.0     0.617872     0.267471     0.617872    0.136549 H
   H66        1.0     0.382128     0.732529     0.617872    0.136596 H
   H67        1.0     0.382128     0.267471     0.382128    0.136856 H
   H68        1.0     0.617872     0.732529     0.382128    0.136590 H
   H69        1.0     0.117853     0.117890     0.267471    0.137157 H
   H70        1.0     0.117853     0.882110     0.732529    0.136678 H
   H71        1.0     0.882110     0.882110     0.267471    0.136793 H
   H72        1.0     0.882110     0.117853     0.732529    0.136717 H
   H73        1.0     0.617872     0.617872     0.732529    0.136608 H
   H74        1.0     0.382128     0.617872     0.267471    0.136576 H
   H75        1.0     0.382128     0.382128     0.732529    0.136591 H
   H76        1.0     0.617872     0.382128     0.267471    0.136596 H
   H77        1.0     0.117853     0.267471     0.882110    0.136599 H
   H78        1.0     0.117853     0.732529     0.117890    0.136632 H
   H79        1.0     0.882110     0.267471     0.117890    0.136768 H
   H80        1.0     0.882110     0.732529     0.882110    0.136867 H
   H81        1.0     0.732491     0.882110     0.882110    0.136401 H
   H82        1.0     0.267471     0.882110     0.117890    0.136744 H
   H83        1.0     0.732491     0.117890     0.117890    0.136297 H
   H84        1.0     0.267471     0.117890     0.882110    0.136784 H
   H85        1.0     0.732491     0.382128     0.617872    0.136577 H
   H86        1.0     0.267471     0.617872     0.617872    0.136547 H
   H87        1.0     0.732491     0.617872     0.382128    0.136573 H
   H88        1.0     0.267471     0.382128     0.382128    0.136874 H
   H89        1.0     0.267471     0.117890     0.117890    0.136794 H
   H90        1.0     0.732491     0.117890     0.882110    0.136336 H
   H91        1.0     0.267471     0.882110     0.882110    0.136773 H
   H92        1.0     0.732491     0.882110     0.117890    0.136316 H
   H93        1.0     0.267471     0.617872     0.382128    0.136579 H
   H94        1.0     0.732491     0.382128     0.382128    0.136565 H
   H95        1.0     0.267471     0.382128     0.617872    0.136574 H
   H96        1.0     0.732491     0.617872     0.617872    0.136135 H
   C1         1.0     0.322168     0.177813     0.886846   -0.028772 C
   C2         1.0     0.296944     0.203075     0.930905    0.581440 C
   C3         1.0     0.365400     0.199165     0.865419   -0.077413 C
   C4         1.0     0.677794     0.822150     0.886846   -0.028578 C
   C5         1.0     0.703056     0.796925     0.930905    0.581174 C
   C6         1.0     0.634563     0.800797     0.865419   -0.078104 C
   C7         1.0     0.677794     0.177813     0.113154   -0.028905 C
   C8         1.0     0.703056     0.203075     0.069095    0.581556 C
   C9         1.0     0.634563     0.199203     0.134581   -0.078129 C
   C10        1.0     0.322168     0.822150     0.113154   -0.028720 C
   C11        1.0     0.296944     0.796925     0.069095    0.581372 C
   C12        1.0     0.365400     0.800797     0.134581   -0.077941 C
   C13        1.0     0.886846     0.322168     0.177813   -0.028774 C
   C14        1.0     0.930905     0.296944     0.203075    0.581437 C
   C15        1.0     0.865419     0.365400     0.199165   -0.077358 C
   C16        1.0     0.886846     0.677794     0.822187   -0.028634 C
   C17        1.0     0.930905     0.703056     0.796925    0.581270 C
   C18        1.0     0.865419     0.634563     0.800797   -0.078230 C
   C19        1.0     0.113154     0.677832     0.177813   -0.028603 C
   C20        1.0     0.069095     0.703056     0.203075    0.581348 C
   C21        1.0     0.134581     0.634563     0.199165   -0.077936 C
   C22        1.0     0.113154     0.322168     0.822150   -0.028796 C
   C23        1.0     0.069095     0.296944     0.796925    0.581394 C
   C24        1.0     0.134581     0.365400     0.800797   -0.077924 C
   C25        1.0     0.177813     0.886846     0.322168   -0.028810 C
   C26        1.0     0.203075     0.930905     0.296944    0.581441 C
   C27        1.0     0.199165     0.865419     0.365400   -0.077407 C
   C28        1.0     0.822187     0.886846     0.677794   -0.028641 C
   C29        1.0     0.796925     0.930905     0.703056    0.581271 C
   C30        1.0     0.800797     0.865419     0.634563   -0.078240 C
   C31        1.0     0.177813     0.113154     0.677832   -0.028640 C
   C32        1.0     0.203075     0.069095     0.703056    0.581364 C
   C33        1.0     0.199165     0.134581     0.634563   -0.077886 C
   C34        1.0     0.822150     0.113154     0.322168   -0.028666 C
   C35        1.0     0.796925     0.069095     0.296944    0.581354 C
   C36        1.0     0.800797     0.134581     0.365400   -0.078066 C
   C37        1.0     0.177813     0.322168     0.113154   -0.028678 C
   C38        1.0     0.203075     0.296944     0.069095    0.581318 C
   C39        1.0     0.199203     0.365400     0.134581   -0.078020 C
   C40        1.0     0.822187     0.677794     0.113154   -0.028740 C
   C41        1.0     0.796925     0.703056     0.069095    0.581288 C
   C42        1.0     0.800797     0.634563     0.134581   -0.077884 C
   C43        1.0     0.177813     0.677832     0.886846   -0.028609 C
   C44        1.0     0.203075     0.703056     0.930905    0.581350 C
   C45        1.0     0.199165     0.634563     0.865419   -0.077647 C
   C46        1.0     0.822150     0.322168     0.886846   -0.028677 C
   C47        1.0     0.796925     0.296944     0.930905    0.581381 C
   C48        1.0     0.800797     0.365400     0.865419   -0.078220 C
   C49        1.0     0.322168     0.886846     0.822150   -0.028678 C
   C50        1.0     0.296944     0.930905     0.796925    0.581378 C
   C51        1.0     0.365400     0.865419     0.800797   -0.078227 C
   C52        1.0     0.677794     0.886846     0.177813   -0.029012 C
   C53        1.0     0.703056     0.930905     0.203075    0.581668 C
   C54        1.0     0.634563     0.865419     0.199165   -0.077540 C
   C55        1.0     0.677794     0.113154     0.822150   -0.028655 C
   C56        1.0     0.703056     0.069095     0.796925    0.581162 C
   C57        1.0     0.634563     0.134581     0.800797   -0.078189 C
   C58        1.0     0.322168     0.113154     0.177813   -0.028614 C
   C59        1.0     0.296944     0.069095     0.203075    0.581352 C
   C60        1.0     0.365400     0.134581     0.199203   -0.077978 C
   C61        1.0     0.886846     0.177813     0.677832   -0.028572 C
   C62        1.0     0.930905     0.203075     0.703056    0.581376 C
   C63        1.0     0.865419     0.199165     0.634563   -0.077572 C
   C64        1.0     0.886846     0.822150     0.322168   -0.028745 C
   C65        1.0     0.930905     0.796925     0.296944    0.581401 C
   C66        1.0     0.865419     0.800797     0.365400   -0.078032 C
   C67        1.0     0.113154     0.177850     0.322168   -0.028847 C
   C68        1.0     0.069095     0.203075     0.296944    0.581371 C
   C69        1.0     0.134581     0.199203     0.365400   -0.078135 C
   C70        1.0     0.113154     0.822187     0.677794   -0.028732 C
   C71        1.0     0.069095     0.796925     0.703056    0.581292 C
   C72        1.0     0.134581     0.800797     0.634563   -0.077878 C
   C73        1.0     0.677794     0.822150     0.113154   -0.028720 C
   C74        1.0     0.703056     0.796925     0.069095    0.581168 C
   C75        1.0     0.634563     0.800797     0.134581   -0.077828 C
   C76        1.0     0.322168     0.177813     0.113154   -0.028607 C
   C77        1.0     0.296944     0.203075     0.069095    0.581352 C
   C78        1.0     0.365400     0.199203     0.134581   -0.077983 C
   C79        1.0     0.322168     0.822150     0.886846   -0.028674 C
   C80        1.0     0.296944     0.796925     0.930905    0.581373 C
   C81        1.0     0.365400     0.800797     0.865419   -0.078221 C
   C82        1.0     0.677794     0.177813     0.886846   -0.028984 C
   C83        1.0     0.703056     0.203075     0.930905    0.581650 C
   C84        1.0     0.634563     0.199165     0.865419   -0.077575 C
   C85        1.0     0.113154     0.677794     0.822187   -0.028742 C
   C86        1.0     0.069095     0.703056     0.796925    0.581291 C
   C87        1.0     0.134581     0.634563     0.800797   -0.077889 C
   C88        1.0     0.113154     0.322168     0.177813   -0.028735 C
   C89        1.0     0.069095     0.296944     0.203075    0.581327 C
   C90        1.0     0.134581     0.365400     0.199203   -0.078012 C
   C91        1.0     0.886846     0.322168     0.822150   -0.028669 C
   C92        1.0     0.930905     0.296944     0.796925    0.581379 C
   C93        1.0     0.865419     0.365400     0.800797   -0.078212 C
   C94        1.0     0.886846     0.677794     0.177813   -0.028894 C
   C95        1.0     0.930905     0.703056     0.203075    0.581577 C
   C96        1.0     0.865419     0.634563     0.199165   -0.077542 C
   C97        1.0     0.822150     0.113154     0.677794   -0.028537 C
   C98        1.0     0.796925     0.069095     0.703056    0.581088 C
   C99        1.0     0.800797     0.134581     0.634563   -0.077974 C
   C100       1.0     0.177813     0.113154     0.322168   -0.028742 C
   C101       1.0     0.203075     0.069095     0.296944    0.581330 C
   C102       1.0     0.199203     0.134581     0.365400   -0.077931 C
   C103       1.0     0.822150     0.886846     0.322168   -0.028693 C
   C104       1.0     0.796925     0.930905     0.296944    0.581371 C
   C105       1.0     0.800797     0.865419     0.365400   -0.078067 C
   C106       1.0     0.177813     0.886846     0.677832   -0.028601 C
   C107       1.0     0.203075     0.930905     0.703056    0.581357 C
   C108       1.0     0.199165     0.865419     0.634563   -0.077639 C
   C109       1.0     0.822187     0.677794     0.886846   -0.028636 C
   C110       1.0     0.796925     0.703056     0.930905    0.581271 C
   C111       1.0     0.800797     0.634563     0.865419   -0.078236 C
   C112       1.0     0.177813     0.322168     0.886846   -0.028802 C
   C113       1.0     0.203075     0.296944     0.930905    0.581444 C
   C114       1.0     0.199165     0.365400     0.865419   -0.077400 C
   C115       1.0     0.822150     0.322168     0.113154   -0.028679 C
   C116       1.0     0.796925     0.296944     0.069095    0.581358 C
   C117       1.0     0.800797     0.365400     0.134581   -0.078092 C
   C118       1.0     0.177813     0.677832     0.113154   -0.028542 C
   C119       1.0     0.203075     0.703056     0.069095    0.581335 C
   C120       1.0     0.199165     0.634563     0.134581   -0.077942 C
   C121       1.0     0.677794     0.113154     0.177813   -0.028998 C
   C122       1.0     0.703056     0.069095     0.203075    0.581627 C
   C123       1.0     0.634563     0.134581     0.199165   -0.077590 C
   C124       1.0     0.322168     0.113154     0.822150   -0.028662 C
   C125       1.0     0.296944     0.069095     0.796925    0.581357 C
   C126       1.0     0.365400     0.134581     0.800797   -0.078132 C
   C127       1.0     0.322168     0.886846     0.177813   -0.028797 C
   C128       1.0     0.296944     0.930905     0.203075    0.581437 C
   C129       1.0     0.365400     0.865419     0.199165   -0.077417 C
   C130       1.0     0.677794     0.886846     0.822150   -0.028588 C
   C131       1.0     0.703056     0.930905     0.796925    0.581175 C
   C132       1.0     0.634563     0.865419     0.800797   -0.078113 C
   C133       1.0     0.113154     0.822150     0.322168   -0.028792 C
   C134       1.0     0.069095     0.796925     0.296944    0.581389 C
   C135       1.0     0.134581     0.800797     0.365400   -0.077926 C
   C136       1.0     0.113154     0.177813     0.677832   -0.028651 C
   C137       1.0     0.069095     0.203075     0.703056    0.581367 C
   C138       1.0     0.134581     0.199165     0.634563   -0.077870 C
   C139       1.0     0.886846     0.822187     0.677794   -0.028637 C
   C140       1.0     0.930905     0.796925     0.703056    0.581269 C
   C141       1.0     0.865419     0.800797     0.634563   -0.078232 C
   C142       1.0     0.886846     0.177813     0.322168   -0.028785 C
   C143       1.0     0.930905     0.203075     0.296944    0.581235 C
   C144       1.0     0.865419     0.199165     0.365400   -0.077307 C
   C145       1.0     0.322168     0.677832     0.386828   -0.028619 C
   C146       1.0     0.296944     0.703056     0.430886    0.580626 C
   C147       1.0     0.365400     0.699184     0.365400   -0.077864 C
   C148       1.0     0.677832     0.322168     0.386828   -0.028363 C
   C149       1.0     0.703056     0.296944     0.430886    0.580501 C
   C150       1.0     0.634563     0.300778     0.365400   -0.078000 C
   C151       1.0     0.677794     0.677832     0.613135   -0.028449 C
   C152       1.0     0.703056     0.703056     0.569076    0.581082 C
   C153       1.0     0.634563     0.699184     0.634563   -0.078007 C
   C154       1.0     0.322168     0.322168     0.613135   -0.029268 C
   C155       1.0     0.296944     0.296906     0.569076    0.581516 C
   C156       1.0     0.365400     0.300816     0.634563   -0.077632 C
   C157       1.0     0.865419     0.865419     0.699184   -0.077998 C
   C158       1.0     0.865419     0.134581     0.300816   -0.077955 C
   C159       1.0     0.134581     0.134581     0.699184   -0.077763 C
   C160       1.0     0.134581     0.865419     0.300816   -0.077782 C
   C161       1.0     0.177813     0.386828     0.822150   -0.028774 C
   C162       1.0     0.203075     0.430886     0.796925    0.580345 C
   C163       1.0     0.822150     0.386828     0.177813   -0.028801 C
   C164       1.0     0.796925     0.430886     0.203075    0.580246 C
   C165       1.0     0.177813     0.613135     0.177813   -0.028576 C
   C166       1.0     0.203075     0.569076     0.203075    0.581501 C
   C167       1.0     0.822187     0.613135     0.822187   -0.028617 C
   C168       1.0     0.796925     0.569076     0.796925    0.581542 C
   C169       1.0     0.177813     0.822150     0.613135   -0.028850 C
   C170       1.0     0.203075     0.796925     0.569076    0.581556 C
   C171       1.0     0.822150     0.177813     0.613135   -0.028900 C
   C172       1.0     0.796925     0.203075     0.569076    0.581609 C
   C173       1.0     0.177813     0.177813     0.386828   -0.028649 C
   C174       1.0     0.203075     0.203075     0.430886    0.580470 C
   C175       1.0     0.822150     0.822187     0.386828   -0.028626 C
   C176       1.0     0.796925     0.796925     0.430886    0.580138 C
   C177       1.0     0.322168     0.386828     0.322168   -0.028358 C
   C178       1.0     0.296944     0.430886     0.296944    0.580643 C
   C179       1.0     0.365400     0.365400     0.300778   -0.078058 C
   C180       1.0     0.677794     0.386828     0.677832   -0.029679 C
   C181       1.0     0.703056     0.430886     0.703056    0.581016 C
   C182       1.0     0.634563     0.365400     0.699184   -0.077422 C
   C183       1.0     0.677794     0.613135     0.322168   -0.028825 C
   C184       1.0     0.703056     0.569076     0.296944    0.581103 C
   C185       1.0     0.634563     0.634563     0.300816   -0.077890 C
   C186       1.0     0.322168     0.613135     0.677832   -0.028904 C
   C187       1.0     0.296944     0.569076     0.703056    0.581327 C
   C188       1.0     0.365400     0.634563     0.699184   -0.077284 C
   C189       1.0     0.865419     0.699184     0.134581   -0.077880 C
   C190       1.0     0.865419     0.300816     0.865419   -0.077937 C
   C191       1.0     0.134581     0.699184     0.865419   -0.077896 C
   C192       1.0     0.134581     0.300778     0.134581   -0.078337 C
   C193       1.0     0.677794     0.322168     0.613135   -0.028824 C
   C194       1.0     0.703056     0.296944     0.569076    0.581104 C
   C195       1.0     0.634563     0.300816     0.634563   -0.077889 C
   C196       1.0     0.322168     0.677832     0.613135   -0.028905 C
   C197       1.0     0.296944     0.703056     0.569076    0.581329 C
   C198       1.0     0.365400     0.699184     0.634563   -0.077288 C
   C199       1.0     0.322168     0.322168     0.386828   -0.028284 C
   C200       1.0     0.296944     0.296906     0.430886    0.580393 C
   C201       1.0     0.365400     0.300778     0.365400   -0.078150 C
   C202       1.0     0.677794     0.677832     0.386828   -0.029688 C
   C203       1.0     0.703056     0.703056     0.430886    0.581021 C
   C204       1.0     0.634563     0.699184     0.365400   -0.077431 C
   C205       1.0     0.134581     0.134581     0.300778   -0.078162 C
   C206       1.0     0.134581     0.865419     0.699184   -0.077891 C
   C207       1.0     0.865419     0.865419     0.300816   -0.077888 C
   C208       1.0     0.865419     0.134581     0.699184   -0.078103 C
   C209       1.0     0.822150     0.613135     0.177813   -0.028839 C
   C210       1.0     0.796925     0.569076     0.203075    0.581597 C
   C211       1.0     0.177813     0.613135     0.822150   -0.028859 C
   C212       1.0     0.203075     0.569076     0.796925    0.581553 C
   C213       1.0     0.822187     0.386828     0.822187   -0.028519 C
   C214       1.0     0.796925     0.430886     0.796925    0.580344 C
   C215       1.0     0.177813     0.386828     0.177813   -0.028710 C
   C216       1.0     0.203075     0.430886     0.203075    0.580621 C
   C217       1.0     0.822150     0.177813     0.386828   -0.028807 C
   C218       1.0     0.796925     0.203075     0.430886    0.580249 C
   C219       1.0     0.177813     0.822150     0.386828   -0.028778 C
   C220       1.0     0.203075     0.796925     0.430886    0.580345 C
   C221       1.0     0.822187     0.822187     0.613135   -0.028617 C
   C222       1.0     0.796925     0.796925     0.569076    0.581543 C
   C223       1.0     0.177813     0.177813     0.613135   -0.028617 C
   C224       1.0     0.203075     0.203075     0.569076    0.581581 C
   C225       1.0     0.677794     0.613135     0.677832   -0.028450 C
   C226       1.0     0.703056     0.569076     0.703056    0.581079 C
   C227       1.0     0.634563     0.634563     0.699184   -0.078006 C
   C228       1.0     0.322168     0.613135     0.322168   -0.029207 C
   C229       1.0     0.296944     0.569076     0.296944    0.581424 C
   C230       1.0     0.365400     0.634563     0.300816   -0.077541 C
   C231       1.0     0.322168     0.386828     0.677832   -0.028613 C
   C232       1.0     0.296944     0.430886     0.703056    0.580625 C
   C233       1.0     0.365400     0.365400     0.699184   -0.077895 C
   C234       1.0     0.677832     0.386828     0.322168   -0.028555 C
   C235       1.0     0.703056     0.430886     0.296944    0.580606 C
   C236       1.0     0.634563     0.365400     0.300816   -0.077626 C
   C237       1.0     0.134581     0.300816     0.865419   -0.077781 C
   C238       1.0     0.134581     0.699184     0.134581   -0.078132 C
   C239       1.0     0.865419     0.300816     0.134581   -0.078000 C
   C240       1.0     0.865419     0.699184     0.865419   -0.077993 C
   C241       1.0     0.386828     0.322168     0.677832   -0.028612 C
   C242       1.0     0.430886     0.296944     0.703056    0.580624 C
   C243       1.0     0.386828     0.677832     0.322168   -0.028619 C
   C244       1.0     0.430886     0.703056     0.296944    0.580622 C
   C245       1.0     0.613135     0.677794     0.677794   -0.028589 C
   C246       1.0     0.569076     0.703056     0.703056    0.581178 C
   C247       1.0     0.613135     0.322168     0.322168   -0.029093 C
   C248       1.0     0.569076     0.296944     0.296944    0.581397 C
   C249       1.0     0.699147     0.865419     0.865419   -0.077753 C
   C250       1.0     0.300816     0.865419     0.134581   -0.078009 C
   C251       1.0     0.699147     0.134581     0.134581   -0.077292 C
   C252       1.0     0.300816     0.134581     0.865419   -0.078006 C
   C253       1.0     0.699184     0.365400     0.634563   -0.077063 C
   C254       1.0     0.300816     0.634563     0.634563   -0.077914 C
   C255       1.0     0.699184     0.634563     0.365400   -0.077067 C
   C256       1.0     0.300778     0.365400     0.365400   -0.078091 C
   C257       1.0     0.386828     0.177813     0.177813   -0.028757 C
   C258       1.0     0.430886     0.203075     0.203075    0.580505 C
   C259       1.0     0.386828     0.822187     0.822187   -0.028530 C
   C260       1.0     0.430886     0.796925     0.796925    0.580343 C
   C261       1.0     0.613135     0.177813     0.822187   -0.028651 C
   C262       1.0     0.569076     0.203075     0.796925    0.581501 C
   C263       1.0     0.613135     0.822150     0.177813   -0.028854 C
   C264       1.0     0.569076     0.796925     0.203075    0.581521 C
   C265       1.0     0.613135     0.677832     0.322168   -0.028780 C
   C266       1.0     0.569076     0.703056     0.296944    0.581285 C
   C267       1.0     0.613135     0.322168     0.677832   -0.028780 C
   C268       1.0     0.569076     0.296944     0.703056    0.581289 C
   C269       1.0     0.386828     0.322168     0.322168   -0.028356 C
   C270       1.0     0.430886     0.296944     0.296944    0.580692 C
   C271       1.0     0.386828     0.677794     0.677794   -0.029082 C
   C272       1.0     0.430886     0.703056     0.703056    0.580334 C
   C273       1.0     0.300816     0.134581     0.134581   -0.078216 C
   C274       1.0     0.699147     0.134581     0.865419   -0.077494 C
   C275       1.0     0.300816     0.865419     0.865419   -0.077938 C
   C276       1.0     0.699147     0.865419     0.134581   -0.077439 C
   C277       1.0     0.300816     0.634563     0.365400   -0.077542 C
   C278       1.0     0.699184     0.365400     0.365400   -0.077894 C
   C279       1.0     0.300816     0.365400     0.634563   -0.077521 C
   C280       1.0     0.699147     0.634563     0.634563   -0.077520 C
   C281       1.0     0.613135     0.822187     0.822187   -0.028666 C
   C282       1.0     0.569076     0.796925     0.796925    0.581534 C
   C283       1.0     0.613135     0.177813     0.177813   -0.028667 C
   C284       1.0     0.569076     0.203075     0.203075    0.581509 C
   C285       1.0     0.386828     0.822150     0.177813   -0.028775 C
   C286       1.0     0.430886     0.796925     0.203075    0.580340 C
   C287       1.0     0.386828     0.177813     0.822150   -0.028780 C
   C288       1.0     0.430886     0.203075     0.796925    0.580336 C
   O1         1.0     0.317620     0.243337     0.947145   -0.507750 O
   O2         1.0     0.682380     0.756626     0.947145   -0.508106 O
   O3         1.0     0.682380     0.243337     0.052855   -0.507817 O
   O4         1.0     0.317620     0.756626     0.052855   -0.508016 O
   O5         1.0     0.947145     0.317620     0.243337   -0.507723 O
   O6         1.0     0.947145     0.682380     0.756626   -0.508138 O
   O7         1.0     0.052855     0.682380     0.243337   -0.507795 O
   O8         1.0     0.052855     0.317620     0.756626   -0.508005 O
   O9         1.0     0.243337     0.947145     0.317620   -0.507742 O
   O10        1.0     0.756626     0.947145     0.682380   -0.508123 O
   O11        1.0     0.243337     0.052855     0.682380   -0.507812 O
   O12        1.0     0.756626     0.052855     0.317620   -0.508052 O
   O13        1.0     0.243337     0.317620     0.052855   -0.507749 O
   O14        1.0     0.756626     0.682380     0.052855   -0.508108 O
   O15        1.0     0.243337     0.682380     0.947145   -0.507784 O
   O16        1.0     0.756626     0.317620     0.947145   -0.508023 O
   O17        1.0     0.317620     0.947145     0.756626   -0.508038 O
   O18        1.0     0.682380     0.947145     0.243337   -0.507829 O
   O19        1.0     0.682380     0.052855     0.756626   -0.508101 O
   O20        1.0     0.317620     0.052855     0.243337   -0.507735 O
   O21        1.0     0.947145     0.243337     0.682380   -0.507772 O
   O22        1.0     0.947145     0.756626     0.317620   -0.508042 O
   O23        1.0     0.052855     0.243374     0.317620   -0.508029 O
   O24        1.0     0.052855     0.756626     0.682380   -0.508111 O
   O25        1.0     0.682380     0.756626     0.052855   -0.508079 O
   O26        1.0     0.317620     0.243337     0.052855   -0.507757 O
   O27        1.0     0.317620     0.756626     0.947145   -0.508034 O
   O28        1.0     0.682380     0.243337     0.947145   -0.507828 O
   O29        1.0     0.052855     0.682380     0.756626   -0.508114 O
   O30        1.0     0.052855     0.317620     0.243337   -0.507723 O
   O31        1.0     0.947145     0.317620     0.756626   -0.508034 O
   O32        1.0     0.947145     0.682380     0.243337   -0.507822 O
   O33        1.0     0.756626     0.052855     0.682380   -0.508108 O
   O34        1.0     0.243337     0.052855     0.317620   -0.507744 O
   O35        1.0     0.756626     0.947145     0.317620   -0.508036 O
   O36        1.0     0.243337     0.947145     0.682380   -0.507790 O
   O37        1.0     0.756626     0.682380     0.947145   -0.508141 O
   O38        1.0     0.243337     0.317620     0.947145   -0.507745 O
   O39        1.0     0.756626     0.317620     0.052855   -0.508038 O
   O40        1.0     0.243337     0.682380     0.052855   -0.507799 O
   O41        1.0     0.682380     0.052855     0.243337   -0.507827 O
   O42        1.0     0.317620     0.052855     0.756626   -0.508053 O
   O43        1.0     0.317620     0.947145     0.243337   -0.507736 O
   O44        1.0     0.682380     0.947145     0.756626   -0.508096 O
   O45        1.0     0.052855     0.756626     0.317620   -0.508012 O
   O46        1.0     0.052855     0.243337     0.682380   -0.507785 O
   O47        1.0     0.947145     0.756626     0.682380   -0.508140 O
   O48        1.0     0.947145     0.243374     0.317620   -0.507957 O
   O49        1.0     0.317620     0.743356     0.447126   -0.507933 O
   O50        1.0     0.682380     0.256644     0.447126   -0.508053 O
   O51        1.0     0.682380     0.743356     0.552836   -0.508245 O
   O52        1.0     0.317620     0.256644     0.552836   -0.507813 O
   O53        1.0     0.947145     0.817638     0.743356   -0.508179 O
   O54        1.0     0.947145     0.182362     0.256644   -0.508030 O
   O55        1.0     0.052855     0.182362     0.743356   -0.508199 O
   O56        1.0     0.052855     0.817638     0.256644   -0.508129 O
   O57        1.0     0.243337     0.447126     0.817638   -0.507407 O
   O58        1.0     0.756626     0.447126     0.182362   -0.507594 O
   O59        1.0     0.243337     0.552836     0.182362   -0.508026 O
   O60        1.0     0.756626     0.552836     0.817638   -0.508417 O
   O61        1.0     0.243337     0.817638     0.552836   -0.507887 O
   O62        1.0     0.756626     0.182362     0.552836   -0.508339 O
   O63        1.0     0.243337     0.182362     0.447126   -0.507495 O
   O64        1.0     0.756626     0.817638     0.447126   -0.507643 O
   O65        1.0     0.317620     0.447126     0.256644   -0.507929 O
   O66        1.0     0.682380     0.447126     0.743356   -0.508145 O
   O67        1.0     0.682380     0.552836     0.256644   -0.508189 O
   O68        1.0     0.317620     0.552836     0.743356   -0.508177 O
   O69        1.0     0.947145     0.743356     0.182362   -0.508286 O
   O70        1.0     0.947145     0.256644     0.817638   -0.508107 O
   O71        1.0     0.052855     0.743356     0.817638   -0.508178 O
   O72        1.0     0.052855     0.256644     0.182362   -0.508197 O
   O73        1.0     0.682380     0.256644     0.552836   -0.508198 O
   O74        1.0     0.317620     0.743356     0.552836   -0.508175 O
   O75        1.0     0.317620     0.256644     0.447126   -0.507239 O
   O76        1.0     0.682380     0.743356     0.447126   -0.508133 O
   O77        1.0     0.052855     0.182362     0.256644   -0.508062 O
   O78        1.0     0.052855     0.817638     0.743356   -0.508181 O
   O79        1.0     0.947145     0.817638     0.256644   -0.508121 O
   O80        1.0     0.947145     0.182362     0.743356   -0.508233 O
   O81        1.0     0.756626     0.552836     0.182362   -0.508321 O
   O82        1.0     0.243337     0.552836     0.817638   -0.507888 O
   O83        1.0     0.756626     0.447126     0.817638   -0.507699 O
   O84        1.0     0.243337     0.447126     0.182362   -0.507584 O
   O85        1.0     0.756626     0.182362     0.447126   -0.507591 O
   O86        1.0     0.243337     0.817638     0.447126   -0.507402 O
   O87        1.0     0.756626     0.817638     0.552836   -0.508412 O
   O88        1.0     0.243337     0.182362     0.552836   -0.507936 O
   O89        1.0     0.682380     0.552836     0.743356   -0.508250 O
   O90        1.0     0.317620     0.552836     0.256644   -0.508105 O
   O91        1.0     0.317620     0.447126     0.743356   -0.507946 O
   O92        1.0     0.682380     0.447126     0.256644   -0.508064 O
   O93        1.0     0.052855     0.256644     0.817638   -0.508114 O
   O94        1.0     0.052855     0.743356     0.182362   -0.508245 O
   O95        1.0     0.947145     0.256644     0.182362   -0.508205 O
   O96        1.0     0.947145     0.743356     0.817638   -0.508173 O
   O97        1.0     0.817638     0.243374     0.447126   -0.507644 O
   O98        1.0     0.182362     0.756626     0.447126   -0.507726 O
   O99        1.0     0.182362     0.243374     0.552836   -0.508555 O
   O100       1.0     0.817638     0.756626     0.552836   -0.508422 O
   O101       1.0     0.447126     0.317620     0.743356   -0.507927 O
   O102       1.0     0.447126     0.682380     0.256644   -0.508043 O
   O103       1.0     0.552836     0.682380     0.743356   -0.508304 O
   O104       1.0     0.552836     0.317620     0.256644   -0.508152 O
   O105       1.0     0.743356     0.947145     0.817638   -0.508103 O
   O106       1.0     0.256644     0.947145     0.182362   -0.508164 O
   O107       1.0     0.743356     0.052855     0.182362   -0.508276 O
   O108       1.0     0.256644     0.052855     0.817638   -0.508116 O
   O109       1.0     0.743356     0.317620     0.552836   -0.508074 O
   O110       1.0     0.256644     0.682380     0.552836   -0.508215 O
   O111       1.0     0.743356     0.682380     0.447126   -0.508148 O
   O112       1.0     0.256644     0.317620     0.447164   -0.508522 O
   O113       1.0     0.817638     0.947145     0.256644   -0.508126 O
   O114       1.0     0.182362     0.947145     0.743356   -0.508247 O
   O115       1.0     0.182362     0.052855     0.256644   -0.508186 O
   O116       1.0     0.817638     0.052855     0.743356   -0.508137 O
   O117       1.0     0.447126     0.243337     0.182362   -0.507491 O
   O118       1.0     0.447126     0.756626     0.817638   -0.507702 O
   O119       1.0     0.552836     0.243337     0.817638   -0.507925 O
   O120       1.0     0.552836     0.756626     0.182362   -0.508462 O
   O121       1.0     0.182362     0.756626     0.552836   -0.508457 O
   O122       1.0     0.817638     0.243374     0.552836   -0.508354 O
   O123       1.0     0.817638     0.756626     0.447126   -0.507643 O
   O124       1.0     0.182362     0.243374     0.447126   -0.507794 O
   O125       1.0     0.552836     0.682380     0.256644   -0.508226 O
   O126       1.0     0.552836     0.317620     0.743356   -0.508169 O
   O127       1.0     0.447164     0.317620     0.256644   -0.508279 O
   O128       1.0     0.447126     0.682380     0.743356   -0.508039 O
   O129       1.0     0.256644     0.052855     0.182362   -0.508167 O
   O130       1.0     0.743356     0.052855     0.817638   -0.508112 O
   O131       1.0     0.256644     0.947145     0.817638   -0.508110 O
   O132       1.0     0.743356     0.947145     0.182362   -0.508261 O
   O133       1.0     0.256644     0.682380     0.447126   -0.508043 O
   O134       1.0     0.743356     0.317620     0.447126   -0.507914 O
   O135       1.0     0.256644     0.317620     0.552836   -0.508296 O
   O136       1.0     0.743356     0.682380     0.552836   -0.508204 O
   O137       1.0     0.182362     0.052855     0.743356   -0.508214 O
   O138       1.0     0.817638     0.052855     0.256644   -0.508130 O
   O139       1.0     0.817638     0.947145     0.743356   -0.508167 O
   O140       1.0     0.182362     0.947145     0.256644   -0.508178 O
   O141       1.0     0.552836     0.756626     0.817638   -0.508435 O
   O142       1.0     0.552836     0.243337     0.182362   -0.507969 O
   O143       1.0     0.447126     0.756626     0.182362   -0.507720 O
   O144       1.0     0.447126     0.243337     0.817638   -0.507391 O
   O145       1.0     0.817638     0.743356     0.947145   -0.508170 O
   O146       1.0     0.182362     0.256644     0.947145   -0.508194 O
   O147       1.0     0.182362     0.743356     0.052855   -0.508235 O
   O148       1.0     0.817638     0.256644     0.052855   -0.508111 O
   O149       1.0     0.447126     0.817638     0.243337   -0.507400 O
   O150       1.0     0.447126     0.182362     0.756626   -0.507756 O
   O151       1.0     0.552836     0.182362     0.243374   -0.508548 O
   O152       1.0     0.552836     0.817638     0.756626   -0.508430 O
   O153       1.0     0.743356     0.447126     0.317620   -0.507928 O
   O154       1.0     0.256644     0.447126     0.682380   -0.508041 O
   O155       1.0     0.743356     0.552836     0.682380   -0.508205 O
   O156       1.0     0.256644     0.552836     0.317620   -0.508085 O
   O157       1.0     0.743356     0.817638     0.052855   -0.508127 O
   O158       1.0     0.256644     0.182362     0.052855   -0.508176 O
   O159       1.0     0.743356     0.182362     0.947145   -0.508253 O
   O160       1.0     0.256644     0.817638     0.947145   -0.508113 O
   O161       1.0     0.817638     0.447126     0.756626   -0.507702 O
   O162       1.0     0.182362     0.447126     0.243337   -0.507606 O
   O163       1.0     0.182362     0.552836     0.756626   -0.508459 O
   O164       1.0     0.817638     0.552836     0.243374   -0.508351 O
   O165       1.0     0.447126     0.743356     0.682380   -0.508036 O
   O166       1.0     0.447126     0.256644     0.317620   -0.508112 O
   O167       1.0     0.552836     0.743356     0.317620   -0.508179 O
   O168       1.0     0.552836     0.256644     0.682380   -0.508234 O
   O169       1.0     0.182362     0.256644     0.052855   -0.508182 O
   O170       1.0     0.817638     0.743356     0.052855   -0.508179 O
   O171       1.0     0.817638     0.256644     0.947145   -0.508105 O
   O172       1.0     0.182362     0.743356     0.947145   -0.508244 O
   O173       1.0     0.552836     0.182362     0.756626   -0.508513 O
   O174       1.0     0.552836     0.817638     0.243337   -0.507902 O
   O175       1.0     0.447126     0.817638     0.756626   -0.507703 O
   O176       1.0     0.447126     0.182362     0.243374   -0.507827 O
   O177       1.0     0.256644     0.552836     0.682380   -0.508211 O
   O178       1.0     0.743356     0.552836     0.317620   -0.508091 O
   O179       1.0     0.256644     0.447164     0.317620   -0.508215 O
   O180       1.0     0.743356     0.447126     0.682380   -0.508148 O
   O181       1.0     0.256644     0.182362     0.947145   -0.508182 O
   O182       1.0     0.743356     0.817638     0.947145   -0.508107 O
   O183       1.0     0.256644     0.817638     0.052855   -0.508110 O
   O184       1.0     0.743356     0.182362     0.052855   -0.508260 O
   O185       1.0     0.182362     0.552836     0.243337   -0.508081 O
   O186       1.0     0.817638     0.552836     0.756626   -0.508422 O
   O187       1.0     0.817638     0.447126     0.243374   -0.507661 O
   O188       1.0     0.182362     0.447126     0.756626   -0.507723 O
   O189       1.0     0.552836     0.256644     0.317620   -0.508244 O
   O190       1.0     0.552836     0.743356     0.682380   -0.508297 O
   O191       1.0     0.447126     0.256644     0.682380   -0.508062 O
   O192       1.0     0.447126     0.743356     0.317620   -0.507934 O
   Cu1        1.0     0.283448     0.283448     0.000000    0.808988 Cu
   Cu2        1.0     0.716514     0.716514     0.000000    0.810241 Cu
   Cu3        1.0     0.716514     0.283448     0.000000    0.809518 Cu
   Cu4        1.0     0.283448     0.716514     0.000000    0.809466 Cu
   Cu5        1.0     0.000000     0.283448     0.283448    0.809515 Cu
   Cu6        1.0     0.000000     0.716514     0.716514    0.810221 Cu
   Cu7        1.0     0.000000     0.716514     0.283448    0.809494 Cu
   Cu8        1.0     0.000000     0.283448     0.716514    0.809523 Cu
   Cu9        1.0     0.283448     0.000000     0.283448    0.808916 Cu
   Cu10       1.0     0.716514     0.000000     0.716514    0.810201 Cu
   Cu11       1.0     0.283448     0.000000     0.716514    0.809529 Cu
   Cu12       1.0     0.716514     0.000000     0.283448    0.809554 Cu
   Cu13       1.0     0.283448     0.783467     0.499981    0.809690 Cu
   Cu14       1.0     0.716514     0.216533     0.499981    0.809902 Cu
   Cu15       1.0     0.716514     0.783467     0.499981    0.810248 Cu
   Cu16       1.0     0.283448     0.216533     0.499981    0.809299 Cu
   Cu17       1.0     0.000000     0.783467     0.783467    0.809518 Cu
   Cu18       1.0     0.000000     0.216533     0.216533    0.809077 Cu
   Cu19       1.0     0.000000     0.216533     0.783467    0.809396 Cu
   Cu20       1.0     0.000000     0.783467     0.216533    0.809415 Cu
   Cu21       1.0     0.283448     0.499981     0.783467    0.809671 Cu
   Cu22       1.0     0.716514     0.499981     0.216533    0.809930 Cu
   Cu23       1.0     0.283448     0.499981     0.216533    0.809500 Cu
   Cu24       1.0     0.716514     0.499981     0.783467    0.810239 Cu
   Cu25       1.0     0.783467     0.283448     0.499981    0.810140 Cu
   Cu26       1.0     0.216533     0.716514     0.499981    0.810118 Cu
   Cu27       1.0     0.216533     0.283486     0.499981    0.810390 Cu
   Cu28       1.0     0.783467     0.716514     0.499981    0.810266 Cu
   Cu29       1.0     0.499981     0.283448     0.783467    0.809722 Cu
   Cu30       1.0     0.499981     0.716514     0.216533    0.810102 Cu
   Cu31       1.0     0.499981     0.716514     0.783467    0.810254 Cu
   Cu32       1.0     0.499981     0.283448     0.216533    0.810030 Cu
   Cu33       1.0     0.783467     0.000000     0.783467    0.809520 Cu
   Cu34       1.0     0.216533     0.000000     0.216533    0.809212 Cu
   Cu35       1.0     0.783467     0.000000     0.216533    0.809464 Cu
   Cu36       1.0     0.216533     0.000000     0.783467    0.809455 Cu
   Cu37       1.0     0.783467     0.783467     0.000000    0.809541 Cu
   Cu38       1.0     0.216533     0.216533     0.000000    0.809294 Cu
   Cu39       1.0     0.216533     0.783467     0.000000    0.809385 Cu
   Cu40       1.0     0.783467     0.216533     0.000000    0.809467 Cu
   Cu41       1.0     0.499981     0.783467     0.283448    0.809669 Cu
   Cu42       1.0     0.499981     0.216533     0.716514    0.810142 Cu
   Cu43       1.0     0.499981     0.216533     0.283486    0.810113 Cu
   Cu44       1.0     0.499981     0.783467     0.716514    0.810226 Cu
   Cu45       1.0     0.783467     0.499981     0.283448    0.810139 Cu
   Cu46       1.0     0.216533     0.499981     0.716514    0.810101 Cu
   Cu47       1.0     0.783467     0.499981     0.716514    0.810263 Cu
   Cu48       1.0     0.216533     0.499981     0.283448    0.809873 Cu
